*Heading
** Job name: Job-1 Model name: Model-1
** Generated by: Abaqus/CAE 2021
*Preprint, echo=NO, model=NO, history=NO, contact=NO
**
** PARTS
**
*Part, name=Part-1
*Node
      1,     -3.59375,      0.78125
      2,        -3.75,         1.25
      3,  -2.71505928,  0.289252281
      4,  -2.50114584, -0.0750589371
      5,  -3.34900832, -0.251148343
      6,  -3.63856125, -0.412100911
      7,        -3.75,      -0.9375
      8,      -3.4375,     -1.09375
      9,     -2.96875,     -0.78125
     10,     -1.40625,      -0.9375
     11,      -0.9375,       -0.625
     12,     -0.46875,     -0.78125
     13,      1.09375,       -0.625
     14,       1.5625,     -1.09375
     15,          2.5,      -1.5625
     16,    4.1296072,  -1.46332538
     17,   4.59988785,  -2.16482377
     18,   4.84912586,  -2.41022229
     19,   5.08029652,  -2.46703291
     20,   5.21730089,  -2.34029174
** ... 455 like lines cut
*Element, type=CPS3
  1, 224, 179,  44
  2, 179, 178, 133
  3, 234, 128, 232
  4, 195, 124, 194
  5, 234, 129, 128
  6, 160,   3,  48
  7, 344, 290, 218
  8, 277, 202, 237
  9, 217, 202,  35
 10, 192, 184,  60
 11, 235, 168,   5
 12, 235,  52, 134
 13, 134,  53,   8
 14, 170,  51, 169
 15, 185, 182,  55
 16, 330, 328, 268
 17, 193,  68, 190
 18, 150, 147,  96
 19, 143,  99, 141
 20, 140, 138,  91
** ... 795 like lines cut
*End Part
**  
**
** ASSEMBLY
**
*Assembly, name=Assembly
**  
*Instance, name=Part-1-1, part=Part-1
*End Instance
**  
*End Assembly
** 
** MATERIALS
** 
*Material, name=Material-1
*Density
2900.,
** ----------------------------------------------------------------
** 
** STEP: Step-1
** 
*Step, name=Step-1, nlgeom=NO, perturbation
*Frequency, eigensolver=Lanczos, sim, acoustic coupling=on, normalization=mass
2, , , , , 
** 
** OUTPUT REQUESTS
** 
*Restart, write, frequency=0
** 
** FIELD OUTPUT: F-Output-1
** 
*Output, field, variable=PRESELECT
*End Step
