*Heading
** Job name: Job-1 Model name: Model-1
** Generated by: Abaqus/CAE 2021
*Preprint, echo=NO, model=NO, history=NO, contact=NO
**
** PARTS
**
*Part, name=Part-1
*Node
      1,  -3.01805997,  0.656099975
      2,  -3.14928007,   1.04975998
      3,  -2.28012848,  0.242916375
      4,  -2.10048223, -0.0630350932
      5,  -2.81252408, -0.210916385
      6,  -3.05569291, -0.346085638
      7,  -3.14928007, -0.787320018
      8,  -2.88684011, -0.918540001
      9,  -2.49318004, -0.656099975
     10,  -1.18097997, -0.787320018
     11, -0.787320018, -0.524879992
     12, -0.393660009, -0.656099975
     13,  0.918540001, -0.524879992
     14,   1.31219995, -0.918540001
     15,   2.09951997,  -1.31219995
     16,   3.46807718,  -1.22891235
     17,   3.91963124,   -1.8662014
     18,   4.26647377,  -2.07183409
     19,   4.49990177,  -1.77317488
     20,   4.22403431,  -1.56527305
** ... 208 like lines cut
*Element, type=CPS3
  1, 130,   2,   1
  2, 130, 127,   2
  3, 149, 146, 126
  4, 163,  85,  38
  5, 145,  38,  87
  6, 183,   4, 156
  7, 215, 198, 183
  8, 159, 103, 153
  9, 115,  78, 114
 10, 179,  97,  96
 11,  93,  46,   9
 12,  91,  90,  45
 13,  93,  91,  46
 14,  97,  44,  96
 15, 109,  10,  51
 16, 108,  12,  55
 17, 108,  55, 103
 18, 129,  56, 128
 19, 171, 140, 138
 20, 117,  68,  25
** ... 345 like lines cut
*End Part
**  
**
** ASSEMBLY
**
*Assembly, name=Assembly
**  
*Instance, name=Part-1-1, part=Part-1
*End Instance
**  
*End Assembly
** 
** MATERIALS
** 
*Material, name=Material-1
*Density
2900.,
** ----------------------------------------------------------------
** 
** STEP: Step-1
** 
*Step, name=Step-1, nlgeom=NO, perturbation
*Frequency, eigensolver=Lanczos, sim, acoustic coupling=on, normalization=mass
2, , , , , 
** 
** OUTPUT REQUESTS
** 
*Restart, write, frequency=0
** 
** FIELD OUTPUT: F-Output-1
** 
*Output, field, variable=PRESELECT
*End Step
