*Heading
** Job name: Job-1 Model name: Model-1
** Generated by: Abaqus/CAE 2021
*Preprint, echo=NO, model=NO, history=NO, contact=NO
**
** PARTS
**
*Part, name=Part-1
*Node
      1,  -3.92347789,  0.852930009
      2,  -4.09406424,   1.36468804
      3,  -2.96416712,  0.315791279
      4,  -2.73062706, -0.0819456279
      5,  -3.65628123,  -0.27419129
      6,  -3.97240067, -0.449911326
      7,  -4.09406424,  -1.02351606
      8,  -3.75289202,  -1.19410205
      9,  -3.24113393, -0.852930009
     10,  -1.53527403,  -1.02351606
     11,  -1.02351606, -0.682344019
     12, -0.511758029, -0.852930009
     13,   1.19410205, -0.682344019
     14,   1.70586002,  -1.19410205
     15,   2.72937608,  -1.70586002
     16,    4.5085001,  -1.59758604
     17,    5.0955205,  -2.42606187
     18,   5.54641581,  -2.69338417
     19,   5.84987211,  -2.30512738
     20,   5.49124432,  -2.03485489
** ... 349 like lines cut
*Element, type=CPS3
  1, 139, 120,  41
  2, 120, 119, 115
  3, 154, 153, 111
  4, 189, 107,  38
  5, 153,  38, 111
  6, 118,  45, 117
  7, 304, 239, 257
  8, 140,  56, 136
  9, 129, 128,  32
 10, 165,  54,  53
 11, 193,  49,   9
 12, 176, 175,  48
 13, 193, 176,  49
 14, 194, 156, 165
 15, 219, 218, 164
 16, 127,  94,  93
 17, 163,  60, 161
 18, 179, 167,  92
 19, 173,  86, 169
 20, 360, 242, 283
** ... 601 like lines cut
*End Part
**  
**
** ASSEMBLY
**
*Assembly, name=Assembly
**  
*Instance, name=Part-1-1, part=Part-1
*End Instance
**  
*End Assembly
** 
** MATERIALS
** 
*Material, name=Material-1
*Density
2900.,
** ----------------------------------------------------------------
** 
** STEP: Step-1
** 
*Step, name=Step-1, nlgeom=NO, perturbation
*Frequency, eigensolver=Lanczos, sim, acoustic coupling=on, normalization=mass
2, , , , , 
** 
** OUTPUT REQUESTS
** 
*Restart, write, frequency=0
** 
** FIELD OUTPUT: F-Output-1
** 
*Output, field, variable=PRESELECT
*End Step
